LAMMPS (27 May 2021)
#pore simulation with negative charge

units lj
boundary p p p
atom_style full

read_data data.txt	#read_data
Reading data file ...
  orthogonal box = (-8.0000000 -8.0000000 -50.000000) to (8.0000000 8.0000000 50.000000)
  reading atoms ...
  1104 atoms
  reading velocities ...
  1104 velocities
Finding 1-2 1-3 1-4 neighbors ...
     0 = max # of 1-2 neighbors
     0 = max # of 1-3 neighbors
     0 = max # of 1-4 neighbors
     1 = max # of special neighbors
group move type 2
5 atoms in group move
group still type 1
1099 atoms in group still
region inside block -2.5 2.5 -2.5 2.5 -10.0 10.0
region outside1 block  -8 8 -8 8 -50.0 -10.0
region outside2 block  -8 8 -8 8 10.0 50.0

pair_style lj/cut/coul/cut 1.12		#lj/cut columb/cut
pair_coeff * * 1.0 1.0
velocity still create 1 77484

neighbor 0.3 bin
neigh_modify every 20 delay 0 check no

fix 1 move nve
fix 3 move efield 0 0 -5.12216e-1 region inside
fix 4 move efield 0 0 -5.12216e-2 region outside1
fix 5 move efield 0 0 -5.12216e-2 region outside2
fix 2 move langevin 1 1 1 85748

dump id all custom 50 output.lammpstrj id type x y z		#vmd/pymol
thermo 100
timestep 0.005
run 80000
  update every 20 steps, delay 0 steps, check no
Step Temp E_pair E_mol TotEng Press
0    1.0042551    9209.3541            0    9210.8591    1602.1848
Averages over the last 401 of 801 rows, steps 40000 to 80000:
Temp E_pair E_mol TotEng Press
0.999921 9209.35 0 9210.85 1602.18
Loop time of 14.5592 on 1 procs for 80000 steps with 1104 atoms
