LAMMPS (27 May 2021)
#pore simulation with negative charge

units lj
boundary p p p
atom_style full

read_data data.txt	#read_data
Reading data file ...
  orthogonal box = (-10.500000 -10.500000 -150.00000) to (10.500000 10.500000 150.00000)
  reading atoms ...
  1318 atoms
  scanning bonds ...
  reading bonds ...
  99 bonds
Finding 1-2 1-3 1-4 neighbors ...
     2 = max # of 1-2 neighbors
     2 = max # of 1-3 neighbors
     4 = max # of 1-4 neighbors
     6 = max # of special neighbors
group move type 2
100 atoms in group move
group driver id 1219		#CHANGE ID AS PER STRUCTURE THE FIRST ATOM TO ENTER PORE
1 atoms in group driver
region inside block -1.5 1.5 -1.5 1.5 -10.0 10.0
region outside1 block  -10.5 10.5 -10.5 10.5 -150.0 -10.0
region outside2 block  -10.5 10.5 -10.5 10.5 10.0 150.0

pair_style lj/cut/coul/cut 1.12		#lj/cut columb/cut
pair_coeff * * 1.0 1.0
velocity move create 1 80739

velocity driver set 0 0 0
neighbor 0.3 bin
neigh_modify every 20 delay 0 check no
bond_style harmonic
bond_coeff 1 218.6376 1

fix 1 move nve
#fix 3 move efield 0 0 -0.855 region inside
#fix 4 move efield 0 0 -0.0855 region outside1
#fix 5 move efield 0 0 -0.0855 region outside2
fix 2 move langevin 1 1 1 85748
fix 6 driver setforce 0 0 0

dump id all custom 500 output.lammpstrj id type xu yu zu		#vmd/pymol
thermo 100
timestep 0.005
run 800000
  update every 20 steps, delay 0 steps, check no
Step Temp E_pair E_mol TotEng Press
0  0.074668519    4368.2763            0    4368.3882    175.62122
Averages over the last 4001 of 8001 rows, steps 400000 to 800000:
Temp E_pair E_mol TotEng Press
0.0750406 4368.27 0.0381585 4368.42 175.621
Loop time of 76.0622 on 1 procs for 800000 steps with 1318 atoms
